<flows>
    <interval begin="0" end="3600">
        <flow id="3to11" from="732213463#8.123" to="350127794#6" number="3600"/>
    </interval>
    <!-- <interval begin="0" end="3600">
        <flow id="8to16" from="gneE3" to="219053199#6" number="100"/>
    </interval> -->
</flows>