<?xml version="1.0" encoding="UTF-8"?>

<!-- generated on Tue May 25 22:18:35 2021 by Eclipse SUMO duarouter Version 1.8.0
<configuration xmlns:xsi="http://www.w3.org/2001/XMLSchema-instance" xsi:noNamespaceSchemaLocation="http://sumo.dlr.de/xsd/duarouterConfiguration.xsd">

    <input>
        <net-file value="seoul.net.xml"/>
        <route-files value="test.flow.xml"/>
    </input>

    <output>
        <output-file value="test.rou.xml"/>
        <alternatives-output value="test.rou.alt.xml"/>
    </output>

    <time>
        <begin value="0"/>
        <end value="3600"/>
    </time>

</configuration>
-->

<routes xmlns:xsi="http://www.w3.org/2001/XMLSchema-instance" xsi:noNamespaceSchemaLocation="http://sumo.dlr.de/xsd/routes_file.xsd">
    <vehicle id="3to11.0" depart="0.00">
        <route edges="732213463#8.123 732213463#10 732213463#12 732213463#18 732213463#19 908694578#0 908694578#2 908694578#3 908694578#5 908694578#6 350127794#0 350127794#1 350127794#4 350127794#5 350127794#6"/>
    </vehicle>
    <vehicle id="3to11.1" depart="1.00">
        <route edges="732213463#8.123 732213463#10 732213463#12 732213463#18 732213463#19 908694578#0 908694578#2 908694578#3 908694578#5 908694578#6 350127794#0 350127794#1 350127794#4 350127794#5 350127794#6"/>
    </vehicle>
    <vehicle id="3to11.2" depart="2.00">
        <route edges="732213463#8.123 732213463#10 732213463#12 732213463#18 732213463#19 908694578#0 908694578#2 908694578#3 908694578#5 908694578#6 350127794#0 350127794#1 350127794#4 350127794#5 350127794#6"/>
    </vehicle>
    <vehicle id="3to11.3" depart="3.00">
        <route edges="732213463#8.123 732213463#10 732213463#12 732213463#18 732213463#19 908694578#0 908694578#2 908694578#3 908694578#5 908694578#6 350127794#0 350127794#1 350127794#4 350127794#5 350127794#6"/>
    </vehicle>
    <vehicle id="3to11.4" depart="4.00">
        <route edges="732213463#8.123 732213463#10 732213463#12 732213463#18 732213463#19 908694578#0 908694578#2 908694578#3 908694578#5 908694578#6 350127794#0 350127794#1 350127794#4 350127794#5 350127794#6"/>
    </vehicle>
    <vehicle id="3to11.5" depart="5.00">
        <route edges="732213463#8.123 732213463#10 732213463#12 732213463#18 732213463#19 908694578#0 908694578#2 908694578#3 908694578#5 908694578#6 350127794#0 350127794#1 350127794#4 350127794#5 350127794#6"/>
    </vehicle>
    <vehicle id="3to11.6" depart="6.00">
        <route edges="732213463#8.123 732213463#10 732213463#12 732213463#18 732213463#19 908694578#0 908694578#2 908694578#3 908694578#5 908694578#6 350127794#0 350127794#1 350127794#4 350127794#5 350127794#6"/>
    </vehicle>
    <vehicle id="3to11.7" depart="7.00">
        <route edges="732213463#8.123 732213463#10 732213463#12 732213463#18 732213463#19 908694578#0 908694578#2 908694578#3 908694578#5 908694578#6 350127794#0 350127794#1 350127794#4 350127794#5 350127794#6"/>
    </vehicle>
    <vehicle id="3to11.8" depart="8.00">
        <route edges="732213463#8.123 732213463#10 732213463#12 732213463#18 732213463#19 908694578#0 908694578#2 908694578#3 908694578#5 908694578#6 350127794#0 350127794#1 350127794#4 350127794#5 350127794#6"/>
    </vehicle>
    <vehicle id="3to11.9" depart="9.00">
        <route edges="732213463#8.123 732213463#10 732213463#12 732213463#18 732213463#19 908694578#0 908694578#2 908694578#3 908694578#5 908694578#6 350127794#0 350127794#1 350127794#4 350127794#5 350127794#6"/>
    </vehicle>
    <vehicle id="3to11.10" depart="10.00">
        <route edges="732213463#8.123 732213463#10 732213463#12 732213463#18 732213463#19 908694578#0 908694578#2 908694578#3 908694578#5 908694578#6 350127794#0 350127794#1 350127794#4 350127794#5 350127794#6"/>
    </vehicle>
    <vehicle id="3to11.11" depart="11.00">
        <route edges="732213463#8.123 732213463#10 732213463#12 732213463#18 732213463#19 908694578#0 908694578#2 908694578#3 908694578#5 908694578#6 350127794#0 350127794#1 350127794#4 350127794#5 350127794#6"/>
    </vehicle>
    <vehicle id="3to11.12" depart="12.00">
        <route edges="732213463#8.123 732213463#10 732213463#12 732213463#18 732213463#19 908694578#0 908694578#2 908694578#3 908694578#5 908694578#6 350127794#0 350127794#1 350127794#4 350127794#5 350127794#6"/>
    </vehicle>
    <vehicle id="3to11.13" depart="13.00">
        <route edges="732213463#8.123 732213463#10 732213463#12 732213463#18 732213463#19 908694578#0 908694578#2 908694578#3 908694578#5 908694578#6 350127794#0 350127794#1 350127794#4 350127794#5 350127794#6"/>
    </vehicle>
    <vehicle id="3to11.14" depart="14.00">
        <route edges="732213463#8.123 732213463#10 732213463#12 732213463#18 732213463#19 908694578#0 908694578#2 908694578#3 908694578#5 908694578#6 350127794#0 350127794#1 350127794#4 350127794#5 350127794#6"/>
    </vehicle>
    <vehicle id="3to11.15" depart="15.00">
        <route edges="732213463#8.123 732213463#10 732213463#12 732213463#18 732213463#19 908694578#0 908694578#2 908694578#3 908694578#5 908694578#6 350127794#0 350127794#1 350127794#4 350127794#5 350127794#6"/>
    </vehicle>
    <vehicle id="3to11.16" depart="16.00">
        <route edges="732213463#8.123 732213463#10 732213463#12 732213463#18 732213463#19 908694578#0 908694578#2 908694578#3 908694578#5 908694578#6 350127794#0 350127794#1 350127794#4 350127794#5 350127794#6"/>
    </vehicle>
    <vehicle id="3to11.17" depart="17.00">
        <route edges="732213463#8.123 732213463#10 732213463#12 732213463#18 732213463#19 908694578#0 908694578#2 908694578#3 908694578#5 908694578#6 350127794#0 350127794#1 350127794#4 350127794#5 350127794#6"/>
    </vehicle>
    <vehicle id="3to11.18" depart="18.00">
        <route edges="732213463#8.123 732213463#10 732213463#12 732213463#18 732213463#19 908694578#0 908694578#2 908694578#3 908694578#5 908694578#6 350127794#0 350127794#1 350127794#4 350127794#5 350127794#6"/>
    </vehicle>
    <vehicle id="3to11.19" depart="19.00">
        <route edges="732213463#8.123 732213463#10 732213463#12 732213463#18 732213463#19 908694578#0 908694578#2 908694578#3 908694578#5 908694578#6 350127794#0 350127794#1 350127794#4 350127794#5 350127794#6"/>
    </vehicle>
    <vehicle id="3to11.20" depart="20.00">
        <route edges="732213463#8.123 732213463#10 732213463#12 732213463#18 732213463#19 908694578#0 908694578#2 908694578#3 908694578#5 908694578#6 350127794#0 350127794#1 350127794#4 350127794#5 350127794#6"/>
    </vehicle>
    <vehicle id="3to11.21" depart="21.00">
        <route edges="732213463#8.123 732213463#10 732213463#12 732213463#18 732213463#19 908694578#0 908694578#2 908694578#3 908694578#5 908694578#6 350127794#0 350127794#1 350127794#4 350127794#5 350127794#6"/>
    </vehicle>
    <vehicle id="3to11.22" depart="22.00">
        <route edges="732213463#8.123 732213463#10 732213463#12 732213463#18 732213463#19 908694578#0 908694578#2 908694578#3 908694578#5 908694578#6 350127794#0 350127794#1 350127794#4 350127794#5 350127794#6"/>
    </vehicle>
    <vehicle id="3to11.23" depart="23.00">
        <route edges="732213463#8.123 732213463#10 732213463#12 732213463#18 732213463#19 908694578#0 908694578#2 908694578#3 908694578#5 908694578#6 350127794#0 350127794#1 350127794#4 350127794#5 350127794#6"/>
    </vehicle>
    <vehicle id="3to11.24" depart="24.00">
        <route edges="732213463#8.123 732213463#10 732213463#12 732213463#18 732213463#19 908694578#0 908694578#2 908694578#3 908694578#5 908694578#6 350127794#0 350127794#1 350127794#4 350127794#5 350127794#6"/>
    </vehicle>
    <vehicle id="3to11.25" depart="25.00">
        <route edges="732213463#8.123 732213463#10 732213463#12 732213463#18 732213463#19 908694578#0 908694578#2 908694578#3 908694578#5 908694578#6 350127794#0 350127794#1 350127794#4 350127794#5 350127794#6"/>
    </vehicle>
    <vehicle id="3to11.26" depart="26.00">
        <route edges="732213463#8.123 732213463#10 732213463#12 732213463#18 732213463#19 908694578#0 908694578#2 908694578#3 908694578#5 908694578#6 350127794#0 350127794#1 350127794#4 350127794#5 350127794#6"/>
    </vehicle>
    <vehicle id="3to11.27" depart="27.00">
        <route edges="732213463#8.123 732213463#10 732213463#12 732213463#18 732213463#19 908694578#0 908694578#2 908694578#3 908694578#5 908694578#6 350127794#0 350127794#1 350127794#4 350127794#5 350127794#6"/>
    </vehicle>
    <vehicle id="3to11.28" depart="28.00">
        <route edges="732213463#8.123 732213463#10 732213463#12 732213463#18 732213463#19 908694578#0 908694578#2 908694578#3 908694578#5 908694578#6 350127794#0 350127794#1 350127794#4 350127794#5 350127794#6"/>
    </vehicle>
    <vehicle id="3to11.29" depart="29.00">
        <route edges="732213463#8.123 732213463#10 732213463#12 732213463#18 732213463#19 908694578#0 908694578#2 908694578#3 908694578#5 908694578#6 350127794#0 350127794#1 350127794#4 350127794#5 350127794#6"/>
    </vehicle>
    <vehicle id="3to11.30" depart="30.00">
        <route edges="732213463#8.123 732213463#10 732213463#12 732213463#18 732213463#19 908694578#0 908694578#2 908694578#3 908694578#5 908694578#6 350127794#0 350127794#1 350127794#4 350127794#5 350127794#6"/>
    </vehicle>
    <vehicle id="3to11.31" depart="31.00">
        <route edges="732213463#8.123 732213463#10 732213463#12 732213463#18 732213463#19 908694578#0 908694578#2 908694578#3 908694578#5 908694578#6 350127794#0 350127794#1 350127794#4 350127794#5 350127794#6"/>
    </vehicle>
    <vehicle id="3to11.32" depart="32.00">
        <route edges="732213463#8.123 732213463#10 732213463#12 732213463#18 732213463#19 908694578#0 908694578#2 908694578#3 908694578#5 908694578#6 350127794#0 350127794#1 350127794#4 350127794#5 350127794#6"/>
    </vehicle>
    <vehicle id="3to11.33" depart="33.00">
        <route edges="732213463#8.123 732213463#10 732213463#12 732213463#18 732213463#19 908694578#0 908694578#2 908694578#3 908694578#5 908694578#6 350127794#0 350127794#1 350127794#4 350127794#5 350127794#6"/>
    </vehicle>
    <vehicle id="3to11.34" depart="34.00">
        <route edges="732213463#8.123 732213463#10 732213463#12 732213463#18 732213463#19 908694578#0 908694578#2 908694578#3 908694578#5 908694578#6 350127794#0 350127794#1 350127794#4 350127794#5 350127794#6"/>
    </vehicle>
    <vehicle id="3to11.35" depart="35.00">
        <route edges="732213463#8.123 732213463#10 732213463#12 732213463#18 732213463#19 908694578#0 908694578#2 908694578#3 908694578#5 908694578#6 350127794#0 350127794#1 350127794#4 350127794#5 350127794#6"/>
    </vehicle>
    <vehicle id="3to11.36" depart="36.00">
        <route edges="732213463#8.123 732213463#10 732213463#12 732213463#18 732213463#19 908694578#0 908694578#2 908694578#3 908694578#5 908694578#6 350127794#0 350127794#1 350127794#4 350127794#5 350127794#6"/>
    </vehicle>
    <vehicle id="3to11.37" depart="37.00">
        <route edges="732213463#8.123 732213463#10 732213463#12 732213463#18 732213463#19 908694578#0 908694578#2 908694578#3 908694578#5 908694578#6 350127794#0 350127794#1 350127794#4 350127794#5 350127794#6"/>
    </vehicle>
    <vehicle id="3to11.38" depart="38.00">
        <route edges="732213463#8.123 732213463#10 732213463#12 732213463#18 732213463#19 908694578#0 908694578#2 908694578#3 908694578#5 908694578#6 350127794#0 350127794#1 350127794#4 350127794#5 350127794#6"/>
    </vehicle>
    <vehicle id="3to11.39" depart="39.00">
        <route edges="732213463#8.123 732213463#10 732213463#12 732213463#18 732213463#19 908694578#0 908694578#2 908694578#3 908694578#5 908694578#6 350127794#0 350127794#1 350127794#4 350127794#5 350127794#6"/>
    </vehicle>
    <vehicle id="3to11.40" depart="40.00">
        <route edges="732213463#8.123 732213463#10 732213463#12 732213463#18 732213463#19 908694578#0 908694578#2 908694578#3 908694578#5 908694578#6 350127794#0 350127794#1 350127794#4 350127794#5 350127794#6"/>
    </vehicle>
    <vehicle id="3to11.41" depart="41.00">
        <route edges="732213463#8.123 732213463#10 732213463#12 732213463#18 732213463#19 908694578#0 908694578#2 908694578#3 908694578#5 908694578#6 350127794#0 350127794#1 350127794#4 350127794#5 350127794#6"/>
    </vehicle>
    <vehicle id="3to11.42" depart="42.00">
        <route edges="732213463#8.123 732213463#10 732213463#12 732213463#18 732213463#19 908694578#0 908694578#2 908694578#3 908694578#5 908694578#6 350127794#0 350127794#1 350127794#4 350127794#5 350127794#6"/>
    </vehicle>
    <vehicle id="3to11.43" depart="43.00">
        <route edges="732213463#8.123 732213463#10 732213463#12 732213463#18 732213463#19 908694578#0 908694578#2 908694578#3 908694578#5 908694578#6 350127794#0 350127794#1 350127794#4 350127794#5 350127794#6"/>
    </vehicle>
    <vehicle id="3to11.44" depart="44.00">
        <route edges="732213463#8.123 732213463#10 732213463#12 732213463#18 732213463#19 908694578#0 908694578#2 908694578#3 908694578#5 908694578#6 350127794#0 350127794#1 350127794#4 350127794#5 350127794#6"/>
    </vehicle>
    <vehicle id="3to11.45" depart="45.00">
        <route edges="732213463#8.123 732213463#10 732213463#12 732213463#18 732213463#19 908694578#0 908694578#2 908694578#3 908694578#5 908694578#6 350127794#0 350127794#1 350127794#4 350127794#5 350127794#6"/>
    </vehicle>
    <vehicle id="3to11.46" depart="46.00">
        <route edges="732213463#8.123 732213463#10 732213463#12 732213463#18 732213463#19 908694578#0 908694578#2 908694578#3 908694578#5 908694578#6 350127794#0 350127794#1 350127794#4 350127794#5 350127794#6"/>
    </vehicle>
    <vehicle id="3to11.47" depart="47.00">
        <route edges="732213463#8.123 732213463#10 732213463#12 732213463#18 732213463#19 908694578#0 908694578#2 908694578#3 908694578#5 908694578#6 350127794#0 350127794#1 350127794#4 350127794#5 350127794#6"/>
    </vehicle>
    <vehicle id="3to11.48" depart="48.00">
        <route edges="732213463#8.123 732213463#10 732213463#12 732213463#18 732213463#19 908694578#0 908694578#2 908694578#3 908694578#5 908694578#6 350127794#0 350127794#1 350127794#4 350127794#5 350127794#6"/>
    </vehicle>
    <vehicle id="3to11.49" depart="49.00">
        <route edges="732213463#8.123 732213463#10 732213463#12 732213463#18 732213463#19 908694578#0 908694578#2 908694578#3 908694578#5 908694578#6 350127794#0 350127794#1 350127794#4 350127794#5 350127794#6"/>
    </vehicle>
    <vehicle id="3to11.50" depart="50.00">
        <route edges="732213463#8.123 732213463#10 732213463#12 732213463#18 732213463#19 908694578#0 908694578#2 908694578#3 908694578#5 908694578#6 350127794#0 350127794#1 350127794#4 350127794#5 350127794#6"/>
    </vehicle>
    <vehicle id="3to11.51" depart="51.00">
        <route edges="732213463#8.123 732213463#10 732213463#12 732213463#18 732213463#19 908694578#0 908694578#2 908694578#3 908694578#5 908694578#6 350127794#0 350127794#1 350127794#4 350127794#5 350127794#6"/>
    </vehicle>
    <vehicle id="3to11.52" depart="52.00">
        <route edges="732213463#8.123 732213463#10 732213463#12 732213463#18 732213463#19 908694578#0 908694578#2 908694578#3 908694578#5 908694578#6 350127794#0 350127794#1 350127794#4 350127794#5 350127794#6"/>
    </vehicle>
    <vehicle id="3to11.53" depart="53.00">
        <route edges="732213463#8.123 732213463#10 732213463#12 732213463#18 732213463#19 908694578#0 908694578#2 908694578#3 908694578#5 908694578#6 350127794#0 350127794#1 350127794#4 350127794#5 350127794#6"/>
    </vehicle>
    <vehicle id="3to11.54" depart="54.00">
        <route edges="732213463#8.123 732213463#10 732213463#12 732213463#18 732213463#19 908694578#0 908694578#2 908694578#3 908694578#5 908694578#6 350127794#0 350127794#1 350127794#4 350127794#5 350127794#6"/>
    </vehicle>
    <vehicle id="3to11.55" depart="55.00">
        <route edges="732213463#8.123 732213463#10 732213463#12 732213463#18 732213463#19 908694578#0 908694578#2 908694578#3 908694578#5 908694578#6 350127794#0 350127794#1 350127794#4 350127794#5 350127794#6"/>
    </vehicle>
    <vehicle id="3to11.56" depart="56.00">
        <route edges="732213463#8.123 732213463#10 732213463#12 732213463#18 732213463#19 908694578#0 908694578#2 908694578#3 908694578#5 908694578#6 350127794#0 350127794#1 350127794#4 350127794#5 350127794#6"/>
    </vehicle>
    <vehicle id="3to11.57" depart="57.00">
        <route edges="732213463#8.123 732213463#10 732213463#12 732213463#18 732213463#19 908694578#0 908694578#2 908694578#3 908694578#5 908694578#6 350127794#0 350127794#1 350127794#4 350127794#5 350127794#6"/>
    </vehicle>
    <vehicle id="3to11.58" depart="58.00">
        <route edges="732213463#8.123 732213463#10 732213463#12 732213463#18 732213463#19 908694578#0 908694578#2 908694578#3 908694578#5 908694578#6 350127794#0 350127794#1 350127794#4 350127794#5 350127794#6"/>
    </vehicle>
    <vehicle id="3to11.59" depart="59.00">
        <route edges="732213463#8.123 732213463#10 732213463#12 732213463#18 732213463#19 908694578#0 908694578#2 908694578#3 908694578#5 908694578#6 350127794#0 350127794#1 350127794#4 350127794#5 350127794#6"/>
    </vehicle>
    <vehicle id="3to11.60" depart="60.00">
        <route edges="732213463#8.123 732213463#10 732213463#12 732213463#18 732213463#19 908694578#0 908694578#2 908694578#3 908694578#5 908694578#6 350127794#0 350127794#1 350127794#4 350127794#5 350127794#6"/>
    </vehicle>
    <vehicle id="3to11.61" depart="61.00">
        <route edges="732213463#8.123 732213463#10 732213463#12 732213463#18 732213463#19 908694578#0 908694578#2 908694578#3 908694578#5 908694578#6 350127794#0 350127794#1 350127794#4 350127794#5 350127794#6"/>
    </vehicle>
    <vehicle id="3to11.62" depart="62.00">
        <route edges="732213463#8.123 732213463#10 732213463#12 732213463#18 732213463#19 908694578#0 908694578#2 908694578#3 908694578#5 908694578#6 350127794#0 350127794#1 350127794#4 350127794#5 350127794#6"/>
    </vehicle>
    <vehicle id="3to11.63" depart="63.00">
        <route edges="732213463#8.123 732213463#10 732213463#12 732213463#18 732213463#19 908694578#0 908694578#2 908694578#3 908694578#5 908694578#6 350127794#0 350127794#1 350127794#4 350127794#5 350127794#6"/>
    </vehicle>
    <vehicle id="3to11.64" depart="64.00">
        <route edges="732213463#8.123 732213463#10 732213463#12 732213463#18 732213463#19 908694578#0 908694578#2 908694578#3 908694578#5 908694578#6 350127794#0 350127794#1 350127794#4 350127794#5 350127794#6"/>
    </vehicle>
    <vehicle id="3to11.65" depart="65.00">
        <route edges="732213463#8.123 732213463#10 732213463#12 732213463#18 732213463#19 908694578#0 908694578#2 908694578#3 908694578#5 908694578#6 350127794#0 350127794#1 350127794#4 350127794#5 350127794#6"/>
    </vehicle>
    <vehicle id="3to11.66" depart="66.00">
        <route edges="732213463#8.123 732213463#10 732213463#12 732213463#18 732213463#19 908694578#0 908694578#2 908694578#3 908694578#5 908694578#6 350127794#0 350127794#1 350127794#4 350127794#5 350127794#6"/>
    </vehicle>
    <vehicle id="3to11.67" depart="67.00">
        <route edges="732213463#8.123 732213463#10 732213463#12 732213463#18 732213463#19 908694578#0 908694578#2 908694578#3 908694578#5 908694578#6 350127794#0 350127794#1 350127794#4 350127794#5 350127794#6"/>
    </vehicle>
    <vehicle id="3to11.68" depart="68.00">
        <route edges="732213463#8.123 732213463#10 732213463#12 732213463#18 732213463#19 908694578#0 908694578#2 908694578#3 908694578#5 908694578#6 350127794#0 350127794#1 350127794#4 350127794#5 350127794#6"/>
    </vehicle>
    <vehicle id="3to11.69" depart="69.00">
        <route edges="732213463#8.123 732213463#10 732213463#12 732213463#18 732213463#19 908694578#0 908694578#2 908694578#3 908694578#5 908694578#6 350127794#0 350127794#1 350127794#4 350127794#5 350127794#6"/>
    </vehicle>
    <vehicle id="3to11.70" depart="70.00">
        <route edges="732213463#8.123 732213463#10 732213463#12 732213463#18 732213463#19 908694578#0 908694578#2 908694578#3 908694578#5 908694578#6 350127794#0 350127794#1 350127794#4 350127794#5 350127794#6"/>
    </vehicle>
    <vehicle id="3to11.71" depart="71.00">
        <route edges="732213463#8.123 732213463#10 732213463#12 732213463#18 732213463#19 908694578#0 908694578#2 908694578#3 908694578#5 908694578#6 350127794#0 350127794#1 350127794#4 350127794#5 350127794#6"/>
    </vehicle>
    <vehicle id="3to11.72" depart="72.00">
        <route edges="732213463#8.123 732213463#10 732213463#12 732213463#18 732213463#19 908694578#0 908694578#2 908694578#3 908694578#5 908694578#6 350127794#0 350127794#1 350127794#4 350127794#5 350127794#6"/>
    </vehicle>
    <vehicle id="3to11.73" depart="73.00">
        <route edges="732213463#8.123 732213463#10 732213463#12 732213463#18 732213463#19 908694578#0 908694578#2 908694578#3 908694578#5 908694578#6 350127794#0 350127794#1 350127794#4 350127794#5 350127794#6"/>
    </vehicle>
    <vehicle id="3to11.74" depart="74.00">
        <route edges="732213463#8.123 732213463#10 732213463#12 732213463#18 732213463#19 908694578#0 908694578#2 908694578#3 908694578#5 908694578#6 350127794#0 350127794#1 350127794#4 350127794#5 350127794#6"/>
    </vehicle>
    <vehicle id="3to11.75" depart="75.00">
        <route edges="732213463#8.123 732213463#10 732213463#12 732213463#18 732213463#19 908694578#0 908694578#2 908694578#3 908694578#5 908694578#6 350127794#0 350127794#1 350127794#4 350127794#5 350127794#6"/>
    </vehicle>
    <vehicle id="3to11.76" depart="76.00">
        <route edges="732213463#8.123 732213463#10 732213463#12 732213463#18 732213463#19 908694578#0 908694578#2 908694578#3 908694578#5 908694578#6 350127794#0 350127794#1 350127794#4 350127794#5 350127794#6"/>
    </vehicle>
    <vehicle id="3to11.77" depart="77.00">
        <route edges="732213463#8.123 732213463#10 732213463#12 732213463#18 732213463#19 908694578#0 908694578#2 908694578#3 908694578#5 908694578#6 350127794#0 350127794#1 350127794#4 350127794#5 350127794#6"/>
    </vehicle>
    <vehicle id="3to11.78" depart="78.00">
        <route edges="732213463#8.123 732213463#10 732213463#12 732213463#18 732213463#19 908694578#0 908694578#2 908694578#3 908694578#5 908694578#6 350127794#0 350127794#1 350127794#4 350127794#5 350127794#6"/>
    </vehicle>
    <vehicle id="3to11.79" depart="79.00">
        <route edges="732213463#8.123 732213463#10 732213463#12 732213463#18 732213463#19 908694578#0 908694578#2 908694578#3 908694578#5 908694578#6 350127794#0 350127794#1 350127794#4 350127794#5 350127794#6"/>
    </vehicle>
    <vehicle id="3to11.80" depart="80.00">
        <route edges="732213463#8.123 732213463#10 732213463#12 732213463#18 732213463#19 908694578#0 908694578#2 908694578#3 908694578#5 908694578#6 350127794#0 350127794#1 350127794#4 350127794#5 350127794#6"/>
    </vehicle>
    <vehicle id="3to11.81" depart="81.00">
        <route edges="732213463#8.123 732213463#10 732213463#12 732213463#18 732213463#19 908694578#0 908694578#2 908694578#3 908694578#5 908694578#6 350127794#0 350127794#1 350127794#4 350127794#5 350127794#6"/>
    </vehicle>
    <vehicle id="3to11.82" depart="82.00">
        <route edges="732213463#8.123 732213463#10 732213463#12 732213463#18 732213463#19 908694578#0 908694578#2 908694578#3 908694578#5 908694578#6 350127794#0 350127794#1 350127794#4 350127794#5 350127794#6"/>
    </vehicle>
    <vehicle id="3to11.83" depart="83.00">
        <route edges="732213463#8.123 732213463#10 732213463#12 732213463#18 732213463#19 908694578#0 908694578#2 908694578#3 908694578#5 908694578#6 350127794#0 350127794#1 350127794#4 350127794#5 350127794#6"/>
    </vehicle>
    <vehicle id="3to11.84" depart="84.00">
        <route edges="732213463#8.123 732213463#10 732213463#12 732213463#18 732213463#19 908694578#0 908694578#2 908694578#3 908694578#5 908694578#6 350127794#0 350127794#1 350127794#4 350127794#5 350127794#6"/>
    </vehicle>
    <vehicle id="3to11.85" depart="85.00">
        <route edges="732213463#8.123 732213463#10 732213463#12 732213463#18 732213463#19 908694578#0 908694578#2 908694578#3 908694578#5 908694578#6 350127794#0 350127794#1 350127794#4 350127794#5 350127794#6"/>
    </vehicle>
    <vehicle id="3to11.86" depart="86.00">
        <route edges="732213463#8.123 732213463#10 732213463#12 732213463#18 732213463#19 908694578#0 908694578#2 908694578#3 908694578#5 908694578#6 350127794#0 350127794#1 350127794#4 350127794#5 350127794#6"/>
    </vehicle>
    <vehicle id="3to11.87" depart="87.00">
        <route edges="732213463#8.123 732213463#10 732213463#12 732213463#18 732213463#19 908694578#0 908694578#2 908694578#3 908694578#5 908694578#6 350127794#0 350127794#1 350127794#4 350127794#5 350127794#6"/>
    </vehicle>
    <vehicle id="3to11.88" depart="88.00">
        <route edges="732213463#8.123 732213463#10 732213463#12 732213463#18 732213463#19 908694578#0 908694578#2 908694578#3 908694578#5 908694578#6 350127794#0 350127794#1 350127794#4 350127794#5 350127794#6"/>
    </vehicle>
    <vehicle id="3to11.89" depart="89.00">
        <route edges="732213463#8.123 732213463#10 732213463#12 732213463#18 732213463#19 908694578#0 908694578#2 908694578#3 908694578#5 908694578#6 350127794#0 350127794#1 350127794#4 350127794#5 350127794#6"/>
    </vehicle>
    <vehicle id="3to11.90" depart="90.00">
        <route edges="732213463#8.123 732213463#10 732213463#12 732213463#18 732213463#19 908694578#0 908694578#2 908694578#3 908694578#5 908694578#6 350127794#0 350127794#1 350127794#4 350127794#5 350127794#6"/>
    </vehicle>
    <vehicle id="3to11.91" depart="91.00">
        <route edges="732213463#8.123 732213463#10 732213463#12 732213463#18 732213463#19 908694578#0 908694578#2 908694578#3 908694578#5 908694578#6 350127794#0 350127794#1 350127794#4 350127794#5 350127794#6"/>
    </vehicle>
    <vehicle id="3to11.92" depart="92.00">
        <route edges="732213463#8.123 732213463#10 732213463#12 732213463#18 732213463#19 908694578#0 908694578#2 908694578#3 908694578#5 908694578#6 350127794#0 350127794#1 350127794#4 350127794#5 350127794#6"/>
    </vehicle>
    <vehicle id="3to11.93" depart="93.00">
        <route edges="732213463#8.123 732213463#10 732213463#12 732213463#18 732213463#19 908694578#0 908694578#2 908694578#3 908694578#5 908694578#6 350127794#0 350127794#1 350127794#4 350127794#5 350127794#6"/>
    </vehicle>
    <vehicle id="3to11.94" depart="94.00">
        <route edges="732213463#8.123 732213463#10 732213463#12 732213463#18 732213463#19 908694578#0 908694578#2 908694578#3 908694578#5 908694578#6 350127794#0 350127794#1 350127794#4 350127794#5 350127794#6"/>
    </vehicle>
    <vehicle id="3to11.95" depart="95.00">
        <route edges="732213463#8.123 732213463#10 732213463#12 732213463#18 732213463#19 908694578#0 908694578#2 908694578#3 908694578#5 908694578#6 350127794#0 350127794#1 350127794#4 350127794#5 350127794#6"/>
    </vehicle>
    <vehicle id="3to11.96" depart="96.00">
        <route edges="732213463#8.123 732213463#10 732213463#12 732213463#18 732213463#19 908694578#0 908694578#2 908694578#3 908694578#5 908694578#6 350127794#0 350127794#1 350127794#4 350127794#5 350127794#6"/>
    </vehicle>
    <vehicle id="3to11.97" depart="97.00">
        <route edges="732213463#8.123 732213463#10 732213463#12 732213463#18 732213463#19 908694578#0 908694578#2 908694578#3 908694578#5 908694578#6 350127794#0 350127794#1 350127794#4 350127794#5 350127794#6"/>
    </vehicle>
    <vehicle id="3to11.98" depart="98.00">
        <route edges="732213463#8.123 732213463#10 732213463#12 732213463#18 732213463#19 908694578#0 908694578#2 908694578#3 908694578#5 908694578#6 350127794#0 350127794#1 350127794#4 350127794#5 350127794#6"/>
    </vehicle>
    <vehicle id="3to11.99" depart="99.00">
        <route edges="732213463#8.123 732213463#10 732213463#12 732213463#18 732213463#19 908694578#0 908694578#2 908694578#3 908694578#5 908694578#6 350127794#0 350127794#1 350127794#4 350127794#5 350127794#6"/>
    </vehicle>
    <vehicle id="3to11.100" depart="100.00">
        <route edges="732213463#8.123 732213463#10 732213463#12 732213463#18 732213463#19 908694578#0 908694578#2 908694578#3 908694578#5 908694578#6 350127794#0 350127794#1 350127794#4 350127794#5 350127794#6"/>
    </vehicle>
    <vehicle id="3to11.101" depart="101.00">
        <route edges="732213463#8.123 732213463#10 732213463#12 732213463#18 732213463#19 908694578#0 908694578#2 908694578#3 908694578#5 908694578#6 350127794#0 350127794#1 350127794#4 350127794#5 350127794#6"/>
    </vehicle>
    <vehicle id="3to11.102" depart="102.00">
        <route edges="732213463#8.123 732213463#10 732213463#12 732213463#18 732213463#19 908694578#0 908694578#2 908694578#3 908694578#5 908694578#6 350127794#0 350127794#1 350127794#4 350127794#5 350127794#6"/>
    </vehicle>
    <vehicle id="3to11.103" depart="103.00">
        <route edges="732213463#8.123 732213463#10 732213463#12 732213463#18 732213463#19 908694578#0 908694578#2 908694578#3 908694578#5 908694578#6 350127794#0 350127794#1 350127794#4 350127794#5 350127794#6"/>
    </vehicle>
    <vehicle id="3to11.104" depart="104.00">
        <route edges="732213463#8.123 732213463#10 732213463#12 732213463#18 732213463#19 908694578#0 908694578#2 908694578#3 908694578#5 908694578#6 350127794#0 350127794#1 350127794#4 350127794#5 350127794#6"/>
    </vehicle>
    <vehicle id="3to11.105" depart="105.00">
        <route edges="732213463#8.123 732213463#10 732213463#12 732213463#18 732213463#19 908694578#0 908694578#2 908694578#3 908694578#5 908694578#6 350127794#0 350127794#1 350127794#4 350127794#5 350127794#6"/>
    </vehicle>
    <vehicle id="3to11.106" depart="106.00">
        <route edges="732213463#8.123 732213463#10 732213463#12 732213463#18 732213463#19 908694578#0 908694578#2 908694578#3 908694578#5 908694578#6 350127794#0 350127794#1 350127794#4 350127794#5 350127794#6"/>
    </vehicle>
    <vehicle id="3to11.107" depart="107.00">